examples/data/enwl/lv-network-models/network_23/Feeder_1/Loads.dss
New Load.LOAD1 Phases=1 Bus1=122.1 kV=0.23 kW=1 PF=0.95
New Load.LOAD2 Phases=1 Bus1=130.1 kV=0.23 kW=1 PF=0.95
New Load.LOAD3 Phases=1 Bus1=131.2 kV=0.23 kW=1 PF=0.95
New Load.LOAD4 Phases=1 Bus1=132.3 kV=0.23 kW=1 PF=0.95
New Load.LOAD5 Phases=1 Bus1=133.1 kV=0.23 kW=1 PF=0.95
New Load.LOAD6 Phases=1 Bus1=142.1 kV=0.23 kW=1 PF=0.95
New Load.LOAD7 Phases=1 Bus1=143.1 kV=0.23 kW=1 PF=0.95
New Load.LOAD8 Phases=1 Bus1=144.1 kV=0.23 kW=1 PF=0.95
New Load.LOAD9 Phases=1 Bus1=160.3 kV=0.23 kW=1 PF=0.95
New Load.LOAD10 Phases=1 Bus1=171.3 kV=0.23 kW=1 PF=0.95
New Load.LOAD11 Phases=1 Bus1=192.3 kV=0.23 kW=1 PF=0.95
New Load.LOAD12 Phases=1 Bus1=216.1 kV=0.23 kW=1 PF=0.95
New Load.LOAD13 Phases=1 Bus1=221.1 kV=0.23 kW=1 PF=0.95
New Load.LOAD14 Phases=1 Bus1=227.1 kV=0.23 kW=1 PF=0.95
New Load.LOAD15 Phases=1 Bus1=232.2 kV=0.23 kW=1 PF=0.95
New Load.LOAD16 Phases=1 Bus1=233.2 kV=0.23 kW=1 PF=0.95
New Load.LOAD17 Phases=1 Bus1=234.2 kV=0.23 kW=1 PF=0.95
New Load.LOAD18 Phases=1 Bus1=235.2 kV=0.23 kW=1 PF=0.95
New Load.LOAD19 Phases=1 Bus1=236.2 kV=0.23 kW=1 PF=0.95
New Load.LOAD20 Phases=1 Bus1=270.3 kV=0.23 kW=1 PF=0.95
New Load.LOAD21 Phases=1 Bus1=278.3 kV=0.23 kW=1 PF=0.95
New Load.LOAD22 Phases=1 Bus1=293.3 kV=0.23 kW=1 PF=0.95
New Load.LOAD23 Phases=1 Bus1=303.3 kV=0.23 kW=1 PF=0.95
New Load.LOAD24 Phases=1 Bus1=305.3 kV=0.23 kW=1 PF=0.95
New Load.LOAD25 Phases=1 Bus1=331.3 kV=0.23 kW=1 PF=0.95
New Load.LOAD26 Phases=1 Bus1=334.3 kV=0.23 kW=1 PF=0.95
New Load.LOAD27 Phases=1 Bus1=336.3 kV=0.23 kW=1 PF=0.95
New Load.LOAD28 Phases=1 Bus1=338.3 kV=0.23 kW=1 PF=0.95
New Load.LOAD29 Phases=1 Bus1=369.2 kV=0.23 kW=1 PF=0.95
New Load.LOAD30 Phases=1 Bus1=370.3 kV=0.23 kW=1 PF=0.95
New Load.LOAD31 Phases=1 Bus1=383.3 kV=0.23 kW=1 PF=0.95
New Load.LOAD32 Phases=1 Bus1=401.3 kV=0.23 kW=1 PF=0.95
New Load.LOAD33 Phases=1 Bus1=435.3 kV=0.23 kW=1 PF=0.95
New Load.LOAD34 Phases=1 Bus1=449.3 kV=0.23 kW=1 PF=0.95
New Load.LOAD35 Phases=1 Bus1=483.3 kV=0.23 kW=1 PF=0.95
New Load.LOAD36 Phases=1 Bus1=484.3 kV=0.23 kW=1 PF=0.95
New Load.LOAD37 Phases=1 Bus1=491.3 kV=0.23 kW=1 PF=0.95
New Load.LOAD38 Phases=1 Bus1=522.3 kV=0.23 kW=1 PF=0.95
New Load.LOAD39 Phases=1 Bus1=558.1 kV=0.23 kW=1 PF=0.95
New Load.LOAD40 Phases=1 Bus1=559.2 kV=0.23 kW=1 PF=0.95
New Load.LOAD41 Phases=1 Bus1=560.3 kV=0.23 kW=1 PF=0.95
New Load.LOAD42 Phases=1 Bus1=561.1 kV=0.23 kW=1 PF=0.95
New Load.LOAD43 Phases=1 Bus1=562.2 kV=0.23 kW=1 PF=0.95
New Load.LOAD44 Phases=1 Bus1=590.3 kV=0.23 kW=1 PF=0.95
New Load.LOAD45 Phases=1 Bus1=753.1 kV=0.23 kW=1 PF=0.95
New Load.LOAD46 Phases=1 Bus1=754.1 kV=0.23 kW=1 PF=0.95
New Load.LOAD47 Phases=1 Bus1=755.1 kV=0.23 kW=1 PF=0.95
New Load.LOAD48 Phases=1 Bus1=756.1 kV=0.23 kW=1 PF=0.95
New Load.LOAD49 Phases=1 Bus1=793.2 kV=0.23 kW=1 PF=0.95
New Load.LOAD50 Phases=1 Bus1=794.2 kV=0.23 kW=1 PF=0.95
New Load.LOAD51 Phases=1 Bus1=797.3 kV=0.23 kW=1 PF=0.95
New Load.LOAD52 Phases=1 Bus1=798.3 kV=0.23 kW=1 PF=0.95
New Load.LOAD53 Phases=1 Bus1=799.3 kV=0.23 kW=1 PF=0.95
New Load.LOAD54 Phases=1 Bus1=800.3 kV=0.23 kW=1 PF=0.95
New Load.LOAD55 Phases=1 Bus1=801.3 kV=0.23 kW=1 PF=0.95
New Load.LOAD56 Phases=1 Bus1=817.2 kV=0.23 kW=1 PF=0.95
New Load.LOAD57 Phases=1 Bus1=818.2 kV=0.23 kW=1 PF=0.95
New Load.LOAD58 Phases=1 Bus1=819.2 kV=0.23 kW=1 PF=0.95
New Load.LOAD59 Phases=1 Bus1=872.1 kV=0.23 kW=1 PF=0.95
New Load.LOAD60 Phases=1 Bus1=873.1 kV=0.23 kW=1 PF=0.95
New Load.LOAD61 Phases=1 Bus1=874.1 kV=0.23 kW=1 PF=0.95
New Load.LOAD62 Phases=1 Bus1=875.1 kV=0.23 kW=1 PF=0.95
New Load.LOAD63 Phases=1 Bus1=889.3 kV=0.23 kW=1 PF=0.95
New Load.LOAD64 Phases=1 Bus1=890.3 kV=0.23 kW=1 PF=0.95
New Load.LOAD65 Phases=1 Bus1=891.3 kV=0.23 kW=1 PF=0.95
New Load.LOAD66 Phases=1 Bus1=892.3 kV=0.23 kW=1 PF=0.95
New Load.LOAD67 Phases=1 Bus1=899.1 kV=0.23 kW=1 PF=0.95
New Load.LOAD68 Phases=1 Bus1=900.1 kV=0.23 kW=1 PF=0.95
New Load.LOAD69 Phases=1 Bus1=929.1 kV=0.23 kW=1 PF=0.95
New Load.LOAD70 Phases=1 Bus1=941.2 kV=0.23 kW=1 PF=0.95
New Load.LOAD71 Phases=1 Bus1=942.2 kV=0.23 kW=1 PF=0.95
New Load.LOAD72 Phases=1 Bus1=943.2 kV=0.23 kW=1 PF=0.95
New Load.LOAD73 Phases=1 Bus1=944.2 kV=0.23 kW=1 PF=0.95
New Load.LOAD74 Phases=1 Bus1=945.2 kV=0.23 kW=1 PF=0.95
New Load.LOAD75 Phases=1 Bus1=948.1 kV=0.23 kW=1 PF=0.95
New Load.LOAD76 Phases=1 Bus1=985.1 kV=0.23 kW=1 PF=0.95
New Load.LOAD77 Phases=1 Bus1=1009.1 kV=0.23 kW=1 PF=0.95
New Load.LOAD78 Phases=1 Bus1=1010.1 kV=0.23 kW=1 PF=0.95
New Load.LOAD79 Phases=1 Bus1=1011.1 kV=0.23 kW=1 PF=0.95
New Load.LOAD80 Phases=1 Bus1=1020.2 kV=0.23 kW=1 PF=0.95
New Load.LOAD81 Phases=1 Bus1=1025.2 kV=0.23 kW=1 PF=0.95
New Load.LOAD82 Phases=1 Bus1=1026.2 kV=0.23 kW=1 PF=0.95
New Load.LOAD83 Phases=1 Bus1=1028.1 kV=0.23 kW=1 PF=0.95
New Load.LOAD84 Phases=1 Bus1=1029.1 kV=0.23 kW=1 PF=0.95
New Load.LOAD85 Phases=1 Bus1=1038.1 kV=0.23 kW=1 PF=0.95
New Load.LOAD86 Phases=1 Bus1=1041.2 kV=0.23 kW=1 PF=0.95
New Load.LOAD87 Phases=1 Bus1=1042.2 kV=0.23 kW=1 PF=0.95
New Load.LOAD88 Phases=1 Bus1=1053.2 kV=0.23 kW=1 PF=0.95
New Load.LOAD89 Phases=1 Bus1=1073.3 kV=0.23 kW=1 PF=0.95
New Load.LOAD90 Phases=1 Bus1=1074.3 kV=0.23 kW=1 PF=0.95
New Load.LOAD91 Phases=1 Bus1=1075.3 kV=0.23 kW=1 PF=0.95
New Load.LOAD92 Phases=1 Bus1=1076.3 kV=0.23 kW=1 PF=0.95
New Load.LOAD93 Phases=1 Bus1=1121.2 kV=0.23 kW=1 PF=0.95
New Load.LOAD94 Phases=1 Bus1=1133.3 kV=0.23 kW=1 PF=0.95
New Load.LOAD95 Phases=1 Bus1=1143.1 kV=0.23 kW=1 PF=0.95
New Load.LOAD96 Phases=1 Bus1=1149.3 kV=0.23 kW=1 PF=0.95
New Load.LOAD97 Phases=1 Bus1=1199.3 kV=0.23 kW=1 PF=0.95
New Load.LOAD98 Phases=1 Bus1=1216.2 kV=0.23 kW=1 PF=0.95
New Load.LOAD99 Phases=1 Bus1=1228.1 kV=0.23 kW=1 PF=0.95
New Load.LOAD100 Phases=1 Bus1=1229.1 kV=0.23 kW=1 PF=0.95
New Load.LOAD101 Phases=1 Bus1=1231.1 kV=0.23 kW=1 PF=0.95
New Load.LOAD102 Phases=1 Bus1=1232.1 kV=0.23 kW=1 PF=0.95
New Load.LOAD103 Phases=1 Bus1=1240.1 kV=0.23 kW=1 PF=0.95
New Load.LOAD104 Phases=1 Bus1=1243.1 kV=0.23 kW=1 PF=0.95
New Load.LOAD105 Phases=1 Bus1=1244.1 kV=0.23 kW=1 PF=0.95
New Load.LOAD106 Phases=1 Bus1=1245.1 kV=0.23 kW=1 PF=0.95
New Load.LOAD107 Phases=1 Bus1=1261.2 kV=0.23 kW=1 PF=0.95
New Load.LOAD108 Phases=1 Bus1=1262.3 kV=0.23 kW=1 PF=0.95
New Load.LOAD109 Phases=1 Bus1=1269.1 kV=0.23 kW=1 PF=0.95
New Load.LOAD110 Phases=1 Bus1=1278.2 kV=0.23 kW=1 PF=0.95
New Load.LOAD111 Phases=1 Bus1=1288.1 kV=0.23 kW=1 PF=0.95